/*--------------------------------*- C++ -*----------------------------------*\
| =========                 |                                                 |
| \\      /  F ield         | OpenFOAM: The Open Source CFD Toolbox           |
|  \\    /   O peration     | Version:  1.7.1                                 |
|   \\  /    A nd           | Web:      www.OpenFOAM.org                      |
|    \\/     M anipulation  |                                                 |
\*---------------------------------------------------------------------------*/

FoamFile
{
    version     2.0;
    format      ascii;
    class       dictionary;
    location    "constant";
    object      radiationProperties;
}
// * * * * * * * * * * * * * * * * * * * * * * * * * * * * * * * * * * * * * //

radiation       on;

radiationModel  fvDOMBand; //fvDOM


fvDOMBandCoeffs
{
    nPhi    8;          // azimuthal angles in PI/2 on X-Y.(from Y to X)
    nTheta  1;          // polar angles in PI (from Z to X-Y plane)
    convergence 1e-4;   // convergence criteria for radiation iteration
    maxIter 10;         // maximum number of iterations
}

// Number of flow iterations per radiation iteration
solverFreq 1;

absorptionEmissionModel wsggmAbsorptionEmissionBordbarBand;

wsggmAbsorptionEmissionBordbarBandCoeffs
{

	Csoot 0.0;
    band0
    {
        species
        {

            grey
            {

                Tcommon         300.;
                Tlow            290.;
                Thigh           2400.;
                invTemp         false;
                loTcoeffs (0 0 0 0 0 0 0 0 0 0 0 0 0 0 0 0 0 0 0 0 0 0 0 0 0 0 0 0 0 0);
                hiTcoeffs (0.0340429 0.0652305 -0.0463685 0.0138684 -0.0014450 
                    0.7412956 -0.9412652 0.8531866 -0.3342806 0.0431436 
                    -0.5244441 0.2799577 0.0823075 0.1474987 -0.0688622 
                    0.5822860 -0.7672319 0.5289430 -0.4160689 0.1109773 
                    -0.2096994 0.3204027 -0.2468463 0.1697627 -0.0420861 
                    0.0242031 -0.0391017 0.0310940 -0.0204066 0.0049188);
            }
        }
    }

    band1
    {
        species
        {

            grey
            {

                Tcommon         300.;
                Tlow            290.;
                Thigh           2400.;
                invTemp         false;
                loTcoeffs (0 0 0 0 0 0 0 0 0 0 0 0 0 0 0 0 0 0 0 0 0 0 0 0 0 0 0 0 0 0);
                hiTcoeffs (0.3509457 0.7465138 -0.5293090 0.1594423 -0.0166326 
                    0.1552073 0.6755648 -1.1253940 0.6040543 -0.1105453 
                    -0.4862117 1.4092710 -0.5913199 -0.0553385 0.0464663 
                    0.3668088 -1.3834490 0.9085441 -0.1733014 -0.0016129 
                    -0.1055508 0.4575210 -0.3334201 0.0791608 -0.0035398 
                    0.0105857 -0.0501976 0.0384236 -0.0098934 0.0006121);
            }
        }
    }

    band2
    {
        species
        {

            grey
            {

                Tcommon         300.;
                Tlow            290.;
                Thigh           2400.;
                invTemp         false;
                loTcoeffs (0 0 0 0 0 0 0 0 0 0 0 0 0 0 0 0 0 0 0 0 0 0 0 0 0 0 0 0 0 0);
                hiTcoeffs (4.5707400 2.1680670 -1.4989010 0.4917165 -0.0542999 
                    0.2550242 -0.6065428 0.8123855 -0.4532290 0.0869309 
                    0.3805403 0.3494024 -1.1020090 0.6784475 -0.1306996 
                    -0.4249709 0.1853509 0.4046178 -0.3432603 0.0741446 
                    0.1429446 -0.1013694 -0.0811822 0.0883088 -0.0202929 
                    -0.0157408 0.0130244 0.0062981 -0.0084152 0.0020110);
            }
        }
    }

    band3
    {
        species
        {

            grey
            {

                Tcommon         300.;
                Tlow            290.;
                Thigh           2400.;
                invTemp         false;
                loTcoeffs (0 0 0 0 0 0 0 0 0 0 0 0 0 0 0 0 0 0 0 0 0 0 0 0 0 0 0 0 0 0);
                hiTcoeffs (109.81690 -50.923590 23.432360 -5.1638920 0.4393889 
                    -0.0345199 0.4112046 -0.5055995 0.2317509 -0.0375491 
                    0.2656726 -0.5728350 0.4579559 -0.1656759 0.0229520 
                    -0.1225365 0.2924490 -0.2616436 0.1052608 -0.0160047 
                    0.0300151 -0.0798076 0.0764841 -0.0321935 0.0050463 
                    -0.0028205 0.0079966 -0.0079084 0.0033870 -0.0005364);
            }
        }
    }

    band4 // clear gas (absorption = 0)
    {
        species
        {

            grey
            {

                Tcommon         300.;
                Tlow            290.;
                Thigh           2400.;
                invTemp         false;
                loTcoeffs (0 0 0 0 0 0 0 0 0 0 0 0 0 0 0 0 0 0 0 0 0 0 0 0 0 0 0 0 0 0);
                hiTcoeffs (0 0 0 0 0 0 0 0 0 0 0 0 0 0 0 0 0 0 0 0 0 0 0 0 0 0 0 0 0 0);
            }
        }
    }
}

scatterModel    none;

sootModel none;//SPHSootModel<gasHThermoPhysics>;

SPHSootModelCoeffs
{
	solveSoot 			false;//true;

    	fuel          			CH3OH_Metanol;
    	smokePointHeight		0.106; 
    	adiabaticFlameTemperature   	2375;
	T_inf			   	300.0;
	T_air   			300.0;   
	rho_air	   			1.1839;
	MW_air 				28.9647;
	YO2_air				0.23301;
	proportionalityConst		0.4;
}

// ************************************************************************* //
